!- Linux Line endings 

VERSION,
    25.1;                     !- Version Identifier

SIMULATIONCONTROL,
    No,                       !- Do Zone Sizing Calculation
    No,                       !- Do System Sizing Calculation
    No,                       !- Do Plant Sizing Calculation
    No,                       !- Run Simulation for Sizing Periods
    Yes,                      !- Run Simulation for Weather File Run Periods
    No,                       !- Do HVAC Sizing Simulation for Sizing Periods
    1;                        !- Maximum Number of HVAC Sizing Simulation Passes

BUILDING,
    5Zone_Building_From_Energieausweis,    !- Name
    0,                        !- North Axis
    Suburbs,                  !- Terrain
    0.04,                     !- Loads Convergence Tolerance Value
    0.4,                      !- Temperature Convergence Tolerance Value
    FullExterior,             !- Solar Distribution
    25,                       !- Maximum Number of Warmup Days
    6;                        !- Minimum Number of Warmup Days

SURFACECONVECTIONALGORITHM:INSIDE,
    Simple;                   !- Algorithm

SURFACECONVECTIONALGORITHM:OUTSIDE,
    SimpleCombined;           !- Algorithm

HEATBALANCEALGORITHM,
    ConductionTransferFunction,    !- Algorithm
    200,                      !- Surface Temperature Upper Limit
    0.1,                      !- Minimum Surface Convection Heat Transfer Coefficient Value
    1000;                     !- Maximum Surface Convection Heat Transfer Coefficient Value

TIMESTEP,
    4;                        !- Number of Timesteps per Hour

SITE:LOCATION,
    Germany_Central,          !- Name
    51,                       !- Latitude
    10,                       !- Longitude
    1,                        !- Time Zone
    200,                      !- Elevation
    No;                       !- Keep Site Location Information

SIZINGPERIOD:DESIGNDAY,
    Heating_Design_Day,       !- Name
    1,                        !- Month
    21,                       !- Day of Month
    WinterDesignDay,          !- Day Type
    -10,                      !- Maximum DryBulb Temperature
    0,                        !- Daily DryBulb Temperature Range
    ,                         !- DryBulb Temperature Range Modifier Type
    ,                         !- DryBulb Temperature Range Modifier Day Schedule Name
    WetBulb,                  !- Humidity Condition Type
    -10.0,                    !- Wetbulb or DewPoint at Maximum DryBulb
    ,                         !- Humidity Condition Day Schedule Name
    ,                         !- Humidity Ratio at Maximum DryBulb
    ,                         !- Enthalpy at Maximum DryBulb
    ,                         !- Daily WetBulb Temperature Range
    101325,                   !- Barometric Pressure
    4.5,                      !- Wind Speed
    0,                        !- Wind Direction
    No,                       !- Rain Indicator
    No,                       !- Snow Indicator
    No,                       !- Daylight Saving Time Indicator
    ASHRAEClearSky,           !- Solar Model Indicator
    ,                         !- Beam Solar Day Schedule Name
    ,                         !- Diffuse Solar Day Schedule Name
    ,                         !- ASHRAE Clear Sky Optical Depth for Beam Irradiance taub
    ,                         !- ASHRAE Clear Sky Optical Depth for Diffuse Irradiance taud
    ,                         !- Sky Clearness
    ,                         !- Maximum Number Warmup Days
    FullResetAtBeginEnvironment;    !- Begin Environment Reset Mode

SIZINGPERIOD:DESIGNDAY,
    Cooling_Design_Day,       !- Name
    7,                        !- Month
    21,                       !- Day of Month
    SummerDesignDay,          !- Day Type
    32,                       !- Maximum DryBulb Temperature
    10,                       !- Daily DryBulb Temperature Range
    ,                         !- DryBulb Temperature Range Modifier Type
    ,                         !- DryBulb Temperature Range Modifier Day Schedule Name
    WetBulb,                  !- Humidity Condition Type
    23.0,                     !- Wetbulb or DewPoint at Maximum DryBulb
    ,                         !- Humidity Condition Day Schedule Name
    ,                         !- Humidity Ratio at Maximum DryBulb
    ,                         !- Enthalpy at Maximum DryBulb
    ,                         !- Daily WetBulb Temperature Range
    101325,                   !- Barometric Pressure
    4,                        !- Wind Speed
    180,                      !- Wind Direction
    No,                       !- Rain Indicator
    No,                       !- Snow Indicator
    No,                       !- Daylight Saving Time Indicator
    ASHRAEClearSky,           !- Solar Model Indicator
    ,                         !- Beam Solar Day Schedule Name
    ,                         !- Diffuse Solar Day Schedule Name
    ,                         !- ASHRAE Clear Sky Optical Depth for Beam Irradiance taub
    ,                         !- ASHRAE Clear Sky Optical Depth for Diffuse Irradiance taud
    ,                         !- Sky Clearness
    ,                         !- Maximum Number Warmup Days
    FullResetAtBeginEnvironment;    !- Begin Environment Reset Mode

RUNPERIOD,
    Annual,                   !- Name
    1,                        !- Begin Month
    1,                        !- Begin Day of Month
    2024,                     !- Begin Year
    12,                       !- End Month
    31,                       !- End Day of Month
    2024,                     !- End Year
    Monday,                   !- Day of Week for Start Day
    Yes,                      !- Use Weather File Holidays and Special Days
    Yes,                      !- Use Weather File Daylight Saving Period
    No,                       !- Apply Weekend Holiday Rule
    Yes,                      !- Use Weather File Rain Indicators
    Yes,                      !- Use Weather File Snow Indicators
    No,                       !- Treat Weather as Actual
    Hour24;                   !- First Hour Interpolation Starting Values

SCHEDULETYPELIMITS,
    Temperature,              !- Name
    -60,                      !- Lower Limit Value
    200,                      !- Upper Limit Value
    CONTINUOUS,               !- Numeric Type
    Temperature;              !- Unit Type

SCHEDULETYPELIMITS,
    Control Type,             !- Name
    0,                        !- Lower Limit Value
    4,                        !- Upper Limit Value
    DISCRETE,                 !- Numeric Type
    Dimensionless;            !- Unit Type

SCHEDULE:CONSTANT,
    AlwaysOn,                 !- Name
    Control Type,             !- Schedule Type Limits Name
    4;                        !- Hourly Value

SCHEDULE:CONSTANT,
    HeatingSetpoint,          !- Name
    Temperature,              !- Schedule Type Limits Name
    20;                       !- Hourly Value

SCHEDULE:CONSTANT,
    CoolingSetpoint,          !- Name
    Temperature,              !- Schedule Type Limits Name
    26;                       !- Hourly Value

MATERIAL,
    Concrete,                 !- Name
    MediumRough,              !- Roughness
    0.2,                      !- Thickness
    1.95,                     !- Conductivity
    2400,                     !- Density
    900,                      !- Specific Heat
    0.9,                      !- Thermal Absorptance
    0.7,                      !- Solar Absorptance
    0.7;                      !- Visible Absorptance

MATERIAL,
    Insulation,               !- Name
    MediumRough,              !- Roughness
    0.1,                      !- Thickness
    0.04,                     !- Conductivity
    30,                       !- Density
    1300,                     !- Specific Heat
    0.9,                      !- Thermal Absorptance
    0.7,                      !- Solar Absorptance
    0.7;                      !- Visible Absorptance

MATERIAL,
    GypsumBoard,              !- Name
    Smooth,                   !- Roughness
    0.0127,                   !- Thickness
    0.16,                     !- Conductivity
    800,                      !- Density
    1090,                     !- Specific Heat
    0.9,                      !- Thermal Absorptance
    0.7,                      !- Solar Absorptance
    0.5;                      !- Visible Absorptance

MATERIAL,
    Brick,                    !- Name
    MediumRough,              !- Roughness
    0.1,                      !- Thickness
    0.89,                     !- Conductivity
    1920,                     !- Density
    790,                      !- Specific Heat
    0.9,                      !- Thermal Absorptance
    0.7,                      !- Solar Absorptance
    0.7;                      !- Visible Absorptance

MATERIAL,
    Plywood,                  !- Name
    MediumSmooth,             !- Roughness
    0.019,                    !- Thickness
    0.12,                     !- Conductivity
    540,                      !- Density
    1210,                     !- Specific Heat
    0.9,                      !- Thermal Absorptance
    0.7,                      !- Solar Absorptance
    0.7;                      !- Visible Absorptance

WINDOWMATERIAL:SIMPLEGLAZINGSYSTEM,
    SimpleDoubleGlazing,      !- Name
    2.7,                      !- UFactor
    0.7,                      !- Solar Heat Gain Coefficient
    0.8;                      !- Visible Transmittance

CONSTRUCTION,
    WallConstruction,         !- Name
    Brick,                    !- Outside Layer
    Insulation,               !- Layer 2
    Concrete,                 !- Layer 3
    GypsumBoard;              !- Layer 4

CONSTRUCTION,
    RoofConstruction,         !- Name
    Plywood,                  !- Outside Layer
    Insulation,               !- Layer 2
    Concrete,                 !- Layer 3
    GypsumBoard;              !- Layer 4

CONSTRUCTION,
    FloorConstruction,        !- Name
    Concrete,                 !- Outside Layer
    Insulation,               !- Layer 2
    Concrete;                 !- Layer 3

CONSTRUCTION,
    CeilingConstruction,      !- Name
    GypsumBoard,              !- Outside Layer
    Insulation,               !- Layer 2
    GypsumBoard;              !- Layer 3

CONSTRUCTION,
    WindowConstruction,       !- Name
    SimpleDoubleGlazing;      !- Outside Layer

GLOBALGEOMETRYRULES,
    UpperLeftCorner,          !- Starting Vertex Position
    Counterclockwise,         !- Vertex Entry Direction
    Relative,                 !- Coordinate System
    Relative,                 !- Daylighting Reference Point Coordinate System
    Relative;                 !- Rectangular Surface Coordinate System

ZONE,
    Perimeter_North_F1,       !- Name
    0,                        !- Direction of Relative North
    0,                        !- X Origin
    11.219999999999999,       !- Y Origin
    0,                        !- Z Origin
    ,                         !- Type
    1,                        !- Multiplier
    3,                        !- Ceiling Height
    226.8,                    !- Volume
    ,                         !- Floor Area
    ,                         !- Zone Inside Convection Algorithm
    ,                         !- Zone Outside Convection Algorithm
    Yes;                      !- Part of Total Floor Area

ZONE,
    Perimeter_East_F1,        !- Name
    0,                        !- Direction of Relative North
    16.22,                    !- X Origin
    3.7800000000000002,       !- Y Origin
    0,                        !- Z Origin
    ,                         !- Type
    1,                        !- Multiplier
    3,                        !- Ceiling Height
    84.3696,                  !- Volume
    ,                         !- Floor Area
    ,                         !- Zone Inside Convection Algorithm
    ,                         !- Zone Outside Convection Algorithm
    Yes;                      !- Part of Total Floor Area

ZONE,
    Perimeter_South_F1,       !- Name
    0,                        !- Direction of Relative North
    0,                        !- X Origin
    0,                        !- Y Origin
    0,                        !- Z Origin
    ,                         !- Type
    1,                        !- Multiplier
    3,                        !- Ceiling Height
    226.8,                    !- Volume
    ,                         !- Floor Area
    ,                         !- Zone Inside Convection Algorithm
    ,                         !- Zone Outside Convection Algorithm
    Yes;                      !- Part of Total Floor Area

ZONE,
    Perimeter_West_F1,        !- Name
    0,                        !- Direction of Relative North
    0,                        !- X Origin
    3.7800000000000002,       !- Y Origin
    0,                        !- Z Origin
    ,                         !- Type
    1,                        !- Multiplier
    3,                        !- Ceiling Height
    84.3696,                  !- Volume
    ,                         !- Floor Area
    ,                         !- Zone Inside Convection Algorithm
    ,                         !- Zone Outside Convection Algorithm
    Yes;                      !- Part of Total Floor Area

ZONE,
    Core_F1,                  !- Name
    0,                        !- Direction of Relative North
    3.7800000000000002,       !- X Origin
    3.7800000000000002,       !- Y Origin
    0,                        !- Z Origin
    ,                         !- Type
    1,                        !- Multiplier
    3,                        !- Ceiling Height
    277.6608,                 !- Volume
    ,                         !- Floor Area
    ,                         !- Zone Inside Convection Algorithm
    ,                         !- Zone Outside Convection Algorithm
    Yes;                      !- Part of Total Floor Area

BUILDINGSURFACE:DETAILED,
    Perimeter_North_F1_Floor,    !- Name
    Floor,                    !- Surface Type
    FloorConstruction,        !- Construction Name
    Perimeter_North_F1,       !- Zone Name
    ,                         !- Space Name
    Ground,                   !- Outside Boundary Condition
    ,                         !- Outside Boundary Condition Object
    NoSun,                    !- Sun Exposure
    NoWind,                   !- Wind Exposure
    autocalculate,            !- View Factor to Ground
    4,                        !- Number of Vertices
    0,                        !- Vertex 1 Xcoordinate
    15,                       !- Vertex 1 Ycoordinate
    0,                        !- Vertex 1 Zcoordinate
    20,                       !- Vertex 2 Xcoordinate
    15,                       !- Vertex 2 Ycoordinate
    0,                        !- Vertex 2 Zcoordinate
    20,                       !- Vertex 3 Xcoordinate
    11.219999999999999,       !- Vertex 3 Ycoordinate
    0,                        !- Vertex 3 Zcoordinate
    0,                        !- Vertex 4 Xcoordinate
    11.219999999999999,       !- Vertex 4 Ycoordinate
    0;                        !- Vertex 4 Zcoordinate

BUILDINGSURFACE:DETAILED,
    Perimeter_East_F1_Floor,    !- Name
    Floor,                    !- Surface Type
    FloorConstruction,        !- Construction Name
    Perimeter_East_F1,        !- Zone Name
    ,                         !- Space Name
    Ground,                   !- Outside Boundary Condition
    ,                         !- Outside Boundary Condition Object
    NoSun,                    !- Sun Exposure
    NoWind,                   !- Wind Exposure
    autocalculate,            !- View Factor to Ground
    4,                        !- Number of Vertices
    16.22,                    !- Vertex 1 Xcoordinate
    11.219999999999999,       !- Vertex 1 Ycoordinate
    0,                        !- Vertex 1 Zcoordinate
    20,                       !- Vertex 2 Xcoordinate
    11.219999999999999,       !- Vertex 2 Ycoordinate
    0,                        !- Vertex 2 Zcoordinate
    20,                       !- Vertex 3 Xcoordinate
    3.7800000000000002,       !- Vertex 3 Ycoordinate
    0,                        !- Vertex 3 Zcoordinate
    16.22,                    !- Vertex 4 Xcoordinate
    3.7800000000000002,       !- Vertex 4 Ycoordinate
    0;                        !- Vertex 4 Zcoordinate

BUILDINGSURFACE:DETAILED,
    Perimeter_South_F1_Floor,    !- Name
    Floor,                    !- Surface Type
    FloorConstruction,        !- Construction Name
    Perimeter_South_F1,       !- Zone Name
    ,                         !- Space Name
    Ground,                   !- Outside Boundary Condition
    ,                         !- Outside Boundary Condition Object
    NoSun,                    !- Sun Exposure
    NoWind,                   !- Wind Exposure
    autocalculate,            !- View Factor to Ground
    4,                        !- Number of Vertices
    0,                        !- Vertex 1 Xcoordinate
    3.7800000000000002,       !- Vertex 1 Ycoordinate
    0,                        !- Vertex 1 Zcoordinate
    20,                       !- Vertex 2 Xcoordinate
    3.7800000000000002,       !- Vertex 2 Ycoordinate
    0,                        !- Vertex 2 Zcoordinate
    20,                       !- Vertex 3 Xcoordinate
    0,                        !- Vertex 3 Ycoordinate
    0,                        !- Vertex 3 Zcoordinate
    0,                        !- Vertex 4 Xcoordinate
    0,                        !- Vertex 4 Ycoordinate
    0;                        !- Vertex 4 Zcoordinate

BUILDINGSURFACE:DETAILED,
    Perimeter_West_F1_Floor,    !- Name
    Floor,                    !- Surface Type
    FloorConstruction,        !- Construction Name
    Perimeter_West_F1,        !- Zone Name
    ,                         !- Space Name
    Ground,                   !- Outside Boundary Condition
    ,                         !- Outside Boundary Condition Object
    NoSun,                    !- Sun Exposure
    NoWind,                   !- Wind Exposure
    autocalculate,            !- View Factor to Ground
    4,                        !- Number of Vertices
    0,                        !- Vertex 1 Xcoordinate
    11.219999999999999,       !- Vertex 1 Ycoordinate
    0,                        !- Vertex 1 Zcoordinate
    3.7800000000000002,       !- Vertex 2 Xcoordinate
    11.219999999999999,       !- Vertex 2 Ycoordinate
    0,                        !- Vertex 2 Zcoordinate
    3.7800000000000002,       !- Vertex 3 Xcoordinate
    3.7800000000000002,       !- Vertex 3 Ycoordinate
    0,                        !- Vertex 3 Zcoordinate
    0,                        !- Vertex 4 Xcoordinate
    3.7800000000000002,       !- Vertex 4 Ycoordinate
    0;                        !- Vertex 4 Zcoordinate

BUILDINGSURFACE:DETAILED,
    Core_F1_Floor,            !- Name
    Floor,                    !- Surface Type
    FloorConstruction,        !- Construction Name
    Core_F1,                  !- Zone Name
    ,                         !- Space Name
    Ground,                   !- Outside Boundary Condition
    ,                         !- Outside Boundary Condition Object
    NoSun,                    !- Sun Exposure
    NoWind,                   !- Wind Exposure
    autocalculate,            !- View Factor to Ground
    4,                        !- Number of Vertices
    3.7800000000000002,       !- Vertex 1 Xcoordinate
    11.219999999999999,       !- Vertex 1 Ycoordinate
    0,                        !- Vertex 1 Zcoordinate
    16.22,                    !- Vertex 2 Xcoordinate
    11.219999999999999,       !- Vertex 2 Ycoordinate
    0,                        !- Vertex 2 Zcoordinate
    16.22,                    !- Vertex 3 Xcoordinate
    3.7800000000000002,       !- Vertex 3 Ycoordinate
    0,                        !- Vertex 3 Zcoordinate
    3.7800000000000002,       !- Vertex 4 Xcoordinate
    3.7800000000000002,       !- Vertex 4 Ycoordinate
    0;                        !- Vertex 4 Zcoordinate

BUILDINGSURFACE:DETAILED,
    Perimeter_North_F1_Ceiling,    !- Name
    Roof,                     !- Surface Type
    RoofConstruction,         !- Construction Name
    Perimeter_North_F1,       !- Zone Name
    ,                         !- Space Name
    Outdoors,                 !- Outside Boundary Condition
    ,                         !- Outside Boundary Condition Object
    SunExposed,               !- Sun Exposure
    WindExposed,              !- Wind Exposure
    autocalculate,            !- View Factor to Ground
    4,                        !- Number of Vertices
    0,                        !- Vertex 1 Xcoordinate
    11.219999999999999,       !- Vertex 1 Ycoordinate
    3,                        !- Vertex 1 Zcoordinate
    20,                       !- Vertex 2 Xcoordinate
    11.219999999999999,       !- Vertex 2 Ycoordinate
    3,                        !- Vertex 2 Zcoordinate
    20,                       !- Vertex 3 Xcoordinate
    15,                       !- Vertex 3 Ycoordinate
    3,                        !- Vertex 3 Zcoordinate
    0,                        !- Vertex 4 Xcoordinate
    15,                       !- Vertex 4 Ycoordinate
    3;                        !- Vertex 4 Zcoordinate

BUILDINGSURFACE:DETAILED,
    Perimeter_East_F1_Ceiling,    !- Name
    Roof,                     !- Surface Type
    RoofConstruction,         !- Construction Name
    Perimeter_East_F1,        !- Zone Name
    ,                         !- Space Name
    Outdoors,                 !- Outside Boundary Condition
    ,                         !- Outside Boundary Condition Object
    SunExposed,               !- Sun Exposure
    WindExposed,              !- Wind Exposure
    autocalculate,            !- View Factor to Ground
    4,                        !- Number of Vertices
    16.22,                    !- Vertex 1 Xcoordinate
    3.7800000000000002,       !- Vertex 1 Ycoordinate
    3,                        !- Vertex 1 Zcoordinate
    20,                       !- Vertex 2 Xcoordinate
    3.7800000000000002,       !- Vertex 2 Ycoordinate
    3,                        !- Vertex 2 Zcoordinate
    20,                       !- Vertex 3 Xcoordinate
    11.219999999999999,       !- Vertex 3 Ycoordinate
    3,                        !- Vertex 3 Zcoordinate
    16.22,                    !- Vertex 4 Xcoordinate
    11.219999999999999,       !- Vertex 4 Ycoordinate
    3;                        !- Vertex 4 Zcoordinate

BUILDINGSURFACE:DETAILED,
    Perimeter_South_F1_Ceiling,    !- Name
    Roof,                     !- Surface Type
    RoofConstruction,         !- Construction Name
    Perimeter_South_F1,       !- Zone Name
    ,                         !- Space Name
    Outdoors,                 !- Outside Boundary Condition
    ,                         !- Outside Boundary Condition Object
    SunExposed,               !- Sun Exposure
    WindExposed,              !- Wind Exposure
    autocalculate,            !- View Factor to Ground
    4,                        !- Number of Vertices
    0,                        !- Vertex 1 Xcoordinate
    0,                        !- Vertex 1 Ycoordinate
    3,                        !- Vertex 1 Zcoordinate
    20,                       !- Vertex 2 Xcoordinate
    0,                        !- Vertex 2 Ycoordinate
    3,                        !- Vertex 2 Zcoordinate
    20,                       !- Vertex 3 Xcoordinate
    3.7800000000000002,       !- Vertex 3 Ycoordinate
    3,                        !- Vertex 3 Zcoordinate
    0,                        !- Vertex 4 Xcoordinate
    3.7800000000000002,       !- Vertex 4 Ycoordinate
    3;                        !- Vertex 4 Zcoordinate

BUILDINGSURFACE:DETAILED,
    Perimeter_West_F1_Ceiling,    !- Name
    Roof,                     !- Surface Type
    RoofConstruction,         !- Construction Name
    Perimeter_West_F1,        !- Zone Name
    ,                         !- Space Name
    Outdoors,                 !- Outside Boundary Condition
    ,                         !- Outside Boundary Condition Object
    SunExposed,               !- Sun Exposure
    WindExposed,              !- Wind Exposure
    autocalculate,            !- View Factor to Ground
    4,                        !- Number of Vertices
    0,                        !- Vertex 1 Xcoordinate
    3.7800000000000002,       !- Vertex 1 Ycoordinate
    3,                        !- Vertex 1 Zcoordinate
    3.7800000000000002,       !- Vertex 2 Xcoordinate
    3.7800000000000002,       !- Vertex 2 Ycoordinate
    3,                        !- Vertex 2 Zcoordinate
    3.7800000000000002,       !- Vertex 3 Xcoordinate
    11.219999999999999,       !- Vertex 3 Ycoordinate
    3,                        !- Vertex 3 Zcoordinate
    0,                        !- Vertex 4 Xcoordinate
    11.219999999999999,       !- Vertex 4 Ycoordinate
    3;                        !- Vertex 4 Zcoordinate

BUILDINGSURFACE:DETAILED,
    Core_F1_Ceiling,          !- Name
    Roof,                     !- Surface Type
    RoofConstruction,         !- Construction Name
    Core_F1,                  !- Zone Name
    ,                         !- Space Name
    Outdoors,                 !- Outside Boundary Condition
    ,                         !- Outside Boundary Condition Object
    SunExposed,               !- Sun Exposure
    WindExposed,              !- Wind Exposure
    autocalculate,            !- View Factor to Ground
    4,                        !- Number of Vertices
    3.7800000000000002,       !- Vertex 1 Xcoordinate
    3.7800000000000002,       !- Vertex 1 Ycoordinate
    3,                        !- Vertex 1 Zcoordinate
    16.22,                    !- Vertex 2 Xcoordinate
    3.7800000000000002,       !- Vertex 2 Ycoordinate
    3,                        !- Vertex 2 Zcoordinate
    16.22,                    !- Vertex 3 Xcoordinate
    11.219999999999999,       !- Vertex 3 Ycoordinate
    3,                        !- Vertex 3 Zcoordinate
    3.7800000000000002,       !- Vertex 4 Xcoordinate
    11.219999999999999,       !- Vertex 4 Ycoordinate
    3;                        !- Vertex 4 Zcoordinate

BUILDINGSURFACE:DETAILED,
    Perimeter_North_F1_Wall_North,    !- Name
    Wall,                     !- Surface Type
    WallConstruction,         !- Construction Name
    Perimeter_North_F1,       !- Zone Name
    ,                         !- Space Name
    Outdoors,                 !- Outside Boundary Condition
    ,                         !- Outside Boundary Condition Object
    SunExposed,               !- Sun Exposure
    WindExposed,              !- Wind Exposure
    autocalculate,            !- View Factor to Ground
    4,                        !- Number of Vertices
    0,                        !- Vertex 1 Xcoordinate
    15,                       !- Vertex 1 Ycoordinate
    0,                        !- Vertex 1 Zcoordinate
    20,                       !- Vertex 2 Xcoordinate
    15,                       !- Vertex 2 Ycoordinate
    0,                        !- Vertex 2 Zcoordinate
    20,                       !- Vertex 3 Xcoordinate
    15,                       !- Vertex 3 Ycoordinate
    3,                        !- Vertex 3 Zcoordinate
    0,                        !- Vertex 4 Xcoordinate
    15,                       !- Vertex 4 Ycoordinate
    3;                        !- Vertex 4 Zcoordinate

BUILDINGSURFACE:DETAILED,
    Perimeter_South_F1_Wall_South,    !- Name
    Wall,                     !- Surface Type
    WallConstruction,         !- Construction Name
    Perimeter_South_F1,       !- Zone Name
    ,                         !- Space Name
    Outdoors,                 !- Outside Boundary Condition
    ,                         !- Outside Boundary Condition Object
    SunExposed,               !- Sun Exposure
    WindExposed,              !- Wind Exposure
    autocalculate,            !- View Factor to Ground
    4,                        !- Number of Vertices
    20,                       !- Vertex 1 Xcoordinate
    0,                        !- Vertex 1 Ycoordinate
    0,                        !- Vertex 1 Zcoordinate
    0,                        !- Vertex 2 Xcoordinate
    0,                        !- Vertex 2 Ycoordinate
    0,                        !- Vertex 2 Zcoordinate
    0,                        !- Vertex 3 Xcoordinate
    0,                        !- Vertex 3 Ycoordinate
    3,                        !- Vertex 3 Zcoordinate
    20,                       !- Vertex 4 Xcoordinate
    0,                        !- Vertex 4 Ycoordinate
    3;                        !- Vertex 4 Zcoordinate

BUILDINGSURFACE:DETAILED,
    Perimeter_East_F1_Wall_East,    !- Name
    Wall,                     !- Surface Type
    WallConstruction,         !- Construction Name
    Perimeter_East_F1,        !- Zone Name
    ,                         !- Space Name
    Outdoors,                 !- Outside Boundary Condition
    ,                         !- Outside Boundary Condition Object
    SunExposed,               !- Sun Exposure
    WindExposed,              !- Wind Exposure
    autocalculate,            !- View Factor to Ground
    4,                        !- Number of Vertices
    20,                       !- Vertex 1 Xcoordinate
    3.7800000000000002,       !- Vertex 1 Ycoordinate
    0,                        !- Vertex 1 Zcoordinate
    20,                       !- Vertex 2 Xcoordinate
    11.219999999999999,       !- Vertex 2 Ycoordinate
    0,                        !- Vertex 2 Zcoordinate
    20,                       !- Vertex 3 Xcoordinate
    11.219999999999999,       !- Vertex 3 Ycoordinate
    3,                        !- Vertex 3 Zcoordinate
    20,                       !- Vertex 4 Xcoordinate
    3.7800000000000002,       !- Vertex 4 Ycoordinate
    3;                        !- Vertex 4 Zcoordinate

BUILDINGSURFACE:DETAILED,
    Perimeter_West_F1_Wall_West,    !- Name